&time_control
 run_days                            = 0,
 run_hours                           = 12,
 run_minutes                         = 0,
 run_seconds                         = 0,
 start_year                          = 2010, 2006, 2006,
 start_month                         = 06,   03,   03,
 start_day                           = 17,   06,   06,
 start_hour                          = 0,   06,   06,
 start_minute                        = 00,   00,   00,
 start_second                        = 00,   00,   00,
 end_year                            = 2010, 2006, 2006,
 end_month                           = 06,   03,   03,
 end_day                             = 20,   30,   30,
 end_hour                            = 00,   06,   06,
 end_minute                          = 00,   00,   00,
 end_second                          = 00,   00,   00,
 history_interval                    = 360,   30,   30,
 interval_seconds                    = 21600
 input_from_file                     = .true.,.true.,.true.,
 frames_per_outfile                  = 6, 1, 1,
 restart                             = .false.,
 restart_interval                    = 360,
 io_form_history                     = 2
 io_form_restart                     = 2
 io_form_input                       = 2
 io_form_boundary                    = 2
 io_form_auxinput4                   = 2
 io_form_auxinput5                   = 2
 auxinput5_interval = 3600
 io_form_auxinput6                   = 0 
 io_form_auxhist2 = 2,
 auxhist2_interval_s = 600,
 auxhist2_outname = 'aerosols_00000010_d<domain>_<date>'
 debug_level                         = 0
 /

&domains
 time_step                           = 12,
 time_step_fract_num                 = 0,
 time_step_fract_den                 = 1,
 max_dom                             = 1,
 s_we                                = 1,     1,     1,
 e_we                                = 170,  205,    88,
 s_sn                                = 1,     1,     1,
 e_sn                                = 160,  157,    88,
 s_vert                              = 1,     1,     1,
 e_vert                              = 40,    65,    65,
 dx                                  = 4000, 3000, 2500
 dy                                  = 4000, 3000, 2500
 ztop                                = 20000, 20000, 20000,
 grid_id                             = 1,     2,     3,
 parent_id                           = 0,     1,     2,
 i_parent_start                      = 0,     71,    17,
 j_parent_start                      = 0,     39,    20,
 parent_grid_ratio                   = 1,     4,     3,
 parent_time_step_ratio              = 1,     2,     1,
 feedback                            = 1,
 smooth_option                       = 0
 num_metgrid_levels                  = 40
 p_top_requested                     = 5000.
 /

&physics
 mp_physics                          = 10,     2,     2,
 progn                               = 0,     1,     1,
 naer                                = 1e9
 ra_lw_physics                       = 4,     1,     1,
 ra_sw_physics                       = 4,     2,     2,
 radt                                = 15,    15,    15,
 sf_sfclay_physics                   = 2,     1,     1,
 sf_surface_physics                  = 1,     2,     2,
 bl_pbl_physics                      = 2,     1,     1,
 bldt                                = 0,     0,     0,
 cu_physics                          = 5,     0,     0,
 cudt                                = 5,     5,     5,
 cu_diag = 1,
 isfflx                              = 1,
 num_land_cat = 24,
 ifsnow                              = 0,
 icloud                              = 1,
 surface_input_source                = 1,
 num_soil_layers                     = 4,
 mp_zero_out                         = 1,
 mp_zero_out_thresh                  = 1.e-8
 maxiens                             = 1,
 maxens                              = 3,
 maxens2                             = 3,
 maxens3                             = 16,
 ensdim                              = 144,
 cu_rad_feedback                     =.false.,
 /

&fdda
 grid_fdda                           = 0,
 gfdda_inname                        = "wrffdda_d<domain>",
 gfdda_interval_m                    = 360,
 gfdda_end_h                         = 792,
 io_form_gfdda                       = 2,
 if_no_pbl_nudging_uv                = 1,
 if_no_pbl_nudging_t                 = 1,
 if_no_pbl_nudging_q                 = 1,
 if_zfac_uv                          = 1,
 k_zfac_uv                           = 35,
 if_zfac_t                           = 1,
 k_zfac_t                            = 35,
 if_zfac_q                           = 1,
 k_zfac_q                            = 35,
 guv                                 = 0.0003,
 guv                                 = 0.0003,
 guv                                 = 0.0003,
 if_ramping                          = 1,
 dtramp_min                          = 360,
/

 &dynamics
 rk_ord                              = 3,
 w_damping                           = 1,
 diff_opt                            = 0,
 km_opt                              = 0,
 diff_6th_opt                        = 0,     1, 
 diff_6th_factor                     = 0.12,  0.12,
 damp_opt                            = 0,
 dampcoef                            = 0.2,    0.2,    0.2
 zdamp                               = 5000.,  5000.,  5000.,
 khdif                               =   0,      0,      0,
 kvdif                               =   0,      0,      0,
 smdiv                               = 0.1,    0.1,    0.1,
 emdiv                               = 0.01,   0.01,   0.01,
 epssm                               = 0.1,    0.1,    0.1
 mix_full_fields                     = .true., .true., .true.,
 non_hydrostatic                     = .true., .true., .true.,
 use_baseparam_fr_nml                = .false.
 time_step_sound                     = 0,      0,      0,
 h_mom_adv_order                     = 5,      5,      5,
 v_mom_adv_order                     = 3,      3,      3,
 h_sca_adv_order                     = 3,      5,      5,
 v_sca_adv_order                     = 3,      3,      3,
 moist_adv_opt                       = 2,      2,      1, 
 scalar_adv_opt                      = 2,      2,      1, 
 chem_adv_opt                        = 2,      1,     1,
 tke_adv_opt                         = 2,      2,      1, 
 /

 &bdy_control
 spec_bdy_width                      = 1,
 spec_zone                           = 1,
 relax_zone                          = 0,
 specified                           = .true., .false.,.false.,
 periodic_x                          = .false.,.false.,.false.,
 symmetric_xs                        = .false.,.false.,.false.,
 symmetric_xe                        = .false.,.false.,.false.,
 open_xs                             = .false.,.false.,.false.,
 open_xe                             = .false.,.false.,.false.,
 periodic_y                          = .false.,.false.,.false.,
 symmetric_ys                        = .false.,.false.,.false.,
 symmetric_ye                        = .false.,.false.,.false.,
 open_ys                             = .false.,.false.,.false.,
 open_ye                             = .false.,.false.,.false.,
 nested                              = .false., .true., .true.,
 /

&grib2
/

 &namelist_quilt
 nio_tasks_per_group = 0,
 nio_groups = 1,
 /

 &chem
 kemit                               = 19,
 chem_opt                            = 777,        2,
 bioemdt                             = 30,       30,
 photdt                              = 30,       30,
 chemdt                              = 2.,       2.,
 emiss_inpt_opt                      = 1,        1,
 emiss_opt                           = 3,        3,
 io_style_emissions = 0
 chem_in_opt                         = 0,        0,
 phot_opt                            = 0,        1,
 gas_drydep_opt                      = 0,        1,
 aer_drydep_opt                      = 0,        1,
 bio_emiss_opt                       = 1,        1,
 gas_bc_opt                          = 1,        1,
 gas_ic_opt                          = 1,        1,
 aer_bc_opt                          = 1,        1,
 aer_ic_opt                          = 1,        1,
 gaschem_onoff                       = 1,        1,
 aerchem_onoff                       = 1,        1,
 wetscav_onoff                       = 0,        0,
 cldchem_onoff                       = 0,        0,
 vertmix_onoff                       = 0,        1,
 chem_conv_tr                        = 0,        1,
 biomass_burn_opt                    = 0,        0,
 aer_ra_feedback                     = 0,        0,
 have_bcs_chem                       = .true., .false.,
 /

 &partmc
 num_particles = 20.0,
 do_coagulation = .false.
 do_emission = .false.,
 do_mosaic = .false.,
 do_deposition = .false.,
 do_gridded_output = .false.,
 do_transport = .true.,
 record_removals = .false.,
 do_optical = .false.,
 random_seed = 0,
 partmc_prefix_out = "./out/cares"
 partmc_prefix_in = "./",
 partmc_specfile = "./scenario.spec",
 partmc_emissions = "./aero_emit_dists_new/aero_emit_dists",
 partmc_bcs = "./bcs/bcs",
 partmc_ics = "./ics/ics",
 partmc_chem_dt = 300.0,
 num_bins = 100,
 num_edges = 101,
 do_ideal_init_cond = .true.
 /
