 &time_control
 run_days                            = 0,
 run_hours                           = 1,
 run_minutes                         = 0,
 run_seconds                         = 0,
 start_year                          = 2010, 2000, 2000,
 start_month                         = 06,   01,   01,
 start_day                           = 17,   24,   24,
 start_hour                          = 00,   12,   12,
 start_minute                        = 00,   00,   00,
 start_second                        = 00,   00,   00,
 end_year                            = 2010, 2000, 2000,
 end_month                           = 06,   01,   01,
 end_day                             = 20,   25,   25,
 end_hour                            = 00,   12,   12,
 end_minute                          = 00,   00,   00,
 end_second                          = 00,   00,   00,
 interval_seconds                    = 21600
 input_from_file                     = .true.,.true.,.true.,
 history_interval                    = 120,  60,   60,
 frames_per_outfile                  = 36, 1000, 1000,
 restart                             = .false.,
 restart_interval                    = 720,
 io_form_history                     = 2
 io_form_restart                     = 2
 io_form_input                       = 2
 io_form_boundary                    = 2
 io_form_auxhist2 = 2
 auxhist2_interval = 10
 auxhist2_outname = 'aerosols_d<domain>_<date>'
 debug_level                         = 0
 /

 &domains
 time_step                           = 20,
 time_step_fract_num                 = 0,
 time_step_fract_den                 = 1,
 max_dom                             = 1,
 s_we                                = 1,
 e_we                                = 170,    112,   94,
 s_sn                                = 1,
 e_sn                                = 160,    97,    91,
 e_vert                              = 40,    28,    28,
 p_top_requested                     = 5000,
 num_metgrid_levels                  = 40,
 num_metgrid_soil_levels             = 4,
 dx                                  = 4000, 10000,  3333.33,
 dy                                  = 4000, 10000,  3333.33,
 grid_id                             = 1,     2,     3,
 parent_id                           = 0,     1,     2,
 i_parent_start                      = 1,     31,    30,
 j_parent_start                      = 1,     17,    30,
 parent_grid_ratio                   = 1,     3,     3,
 parent_time_step_ratio              = 1,     3,     3,
 feedback                            = 1,
 smooth_option                       = 0,
 /

 &physics
 mp_physics                          = 10,     3,     3,
 ra_lw_physics                       = 4,     1,     1,
 ra_sw_physics                       = 4,     1,     1,
 radt                                = 30,    30,    30,
 sf_sfclay_physics                   = 2,     1,     1,
 sf_surface_physics                  = 1,     2,     2,
 bl_pbl_physics                      = 2,     2,     2,
 bldt                                = 0,     0,     0,
 cu_physics                          = 1,     1,     0,
 cudt                                = 5,     5,     5,
 isfflx                              = 1,
 ifsnow                              = 0,
 icloud                              = 1,
 num_land_cat = 24,
 surface_input_source                = 1,
 num_soil_layers                     = 4,
 sf_urban_physics                    = 0,     0,     0,
 /

 &fdda
 /

 &dynamics
 rk_ord                              = 3,
 w_damping                           = 0,
 diff_opt                            = 1,
 km_opt                              = 4,
 diff_6th_opt                        = 0,      0,      0,
 diff_6th_factor                     = 0.12,   0.12,   0.12,
 damp_opt                            = 0,
 zdamp                               = 5000.,  5000.,  5000.,
 dampcoef                            = 0.2,    0.2,    0.2
 khdif                               =   0,      0,      0,
 kvdif                               =   0,      0,      0,
 smdiv                               = 0.1,    0.1,    0.1,
 emdiv                               = 0.01,   0.01,   0.01,
 epssm                               = 0.1,    0.1,    0.1
 mix_full_fields                     = .true., .true., .true.,
 non_hydrostatic                     = .true., .true., .true.,
 non_hydrostatic                     = .true., .true., .true.,
 h_mom_adv_order                     = 5,      5,      5,
 v_mom_adv_order                     = 3,      3,      3,
 h_sca_adv_order                     = 3,      3,      3,
 v_sca_adv_order                     = 3,      3,      3,
 moist_adv_opt                       = 2,      2,      1,
 scalar_adv_opt                      = 2,      2,      1,
 chem_adv_opt                        = 2,      2,     1,
 tke_adv_opt                         = 2,      2,      1,
 /

 &bdy_control
 spec_bdy_width                      = 1,
 spec_zone                           = 1,
 relax_zone                          = 0,
 specified                           = .true., .false.,.false.,
 nested                              = .false., .true., .true.,
 /

 &grib2
 /

 &namelist_quilt
 nio_tasks_per_group = 0,
 nio_groups = 1,
 /

 &chem
 kemit                               = 19,
 chem_opt                            = 777,        2,
 bioemdt                             = 30,       30,
 photdt                              = 30,       30,
 chemdt                              = 2.,       2.,
 emiss_inpt_opt                      = 1,        1,
 emiss_opt                           = 3,        3,
 io_style_emissions = 0
 chem_in_opt                         = 0,        0,
 phot_opt                            = 1,        1,
 gas_drydep_opt                      = 0,        1,
 aer_drydep_opt                      = 0,        1,
 bio_emiss_opt                       = 1,        1,
 gas_bc_opt                          = 1,        1,
 gas_ic_opt                          = 1,        1,
 aer_bc_opt                          = 1,        1,
 aer_ic_opt                          = 1,        1,
 gaschem_onoff                       = 1,        1,
 aerchem_onoff                       = 1,        1,
 wetscav_onoff                       = 0,        0,
 cldchem_onoff                       = 0,        0,
 vertmix_onoff                       = 1,        1,
 chem_conv_tr                        = 0,        1,
 biomass_burn_opt                    = 0,        0,
 aer_ra_feedback                     = 0,        0,
 have_bcs_chem                       = .true., .false.,
 /

 &partmc
 num_particles = 50.0,
 do_coagulation = .false.
 do_emission = .false.,
 do_mosaic = .false.,
 do_deposition = .false.,
 do_gridded_output = .false.,
 do_transport = .false.,
 record_removals = .false.,
 do_optical = .false.,
 random_seed = 0,
 partmc_prefix_out = "./out/cares"
 partmc_prefix_in = "./",
 partmc_specfile = "./scenario.spec",
 partmc_emissions = "./aero_emit_dists_new/aero_emit_dists",
 partmc_bcs = "./bcs/bcs",
 partmc_ics = "./ics/ics",
 partmc_chem_dt = 300.0,
 num_bins = 100,
 num_edges = 101,
 do_ideal_init_cond = .false.,
 do_testing = .true.
 /
