 &time_control
 run_days                            = 0,
 run_hours                           = 1,
 run_minutes                         = 0,
 run_seconds                         = 0,
 start_year                          = 1999,
 start_month                         = 10,
 start_day                           = 22,
 start_hour                          = 14,
 start_minute                        = 00,
 start_second                        = 00,
 end_year                            = 1999,
 end_month                           = 10,
 end_day                             = 25,
 end_hour                            = 06,
 end_minute                          = 00,
 end_second                          = 00,
 history_interval                    = 60,
 frames_per_outfile                  = 10000,
 restart                             = .false.,
 restart_interval                    = 1440000,
 io_form_history                     = 2
 io_form_restart                     = 2
 io_form_input                       = 2
 io_form_boundary                    = 2
 auxinput3_inname                    = "force_ideal.nc"
 auxinput3_interval_h                = 59
 io_form_auxinput3                   = 2
 io_form_auxhist2 = 2
 auxhist2_interval = 10
 auxhist2_outname = 'aerosols_d<domain>_<date>'
 debug_level                         = 0
 /

 &domains
 time_step                           = 30,
 time_step_fract_num                 = 0,
 time_step_fract_den                 = 1,
 max_dom                             = 1,
 s_we                                = 1,
 e_we                                = 10,
 s_sn                                = 1,
 e_sn                                = 10,
 s_vert                              = 1,
 e_vert                              = 40,
 dx                                  = 12000,
 dy                                  = 12000,
 ztop                                = 12000.,
 /

 &scm
 scm_force                           = 0
 scm_force_dx                        = 10000
 num_force_layers                    = 8
 scm_lu_index                        = 2
 scm_isltyp                          = 4
 scm_vegfra                          = 0.5
 scm_lat                             = 37.600
 scm_lon                             = -96.700
 scm_th_adv                          = .false.
 scm_wind_adv                        = .false.
 scm_qv_adv                          = .false.
 scm_vert_adv                        = .false.
 /

 &physics
 mp_physics                          = 2,
 ra_lw_physics                       = 1,
 ra_sw_physics                       = 1,
 radt                                = 0,
 sf_sfclay_physics                   = 2,
 sf_surface_physics                  = 1,
 bl_pbl_physics                      = 2,
 bldt                                = 0,
 cu_physics                          = 5,
 cu_diag                             = 1,
 progn                               = 1,
 cudt                                = 0,
 isfflx                              = 1,
 ifsnow                              = 0,
 icloud                              = 0,
 num_soil_layers                     = 5,
 num_land_cat = 24,
 mp_zero_out                         = 0,
 /

 &dynamics
 rk_ord                              = 3,
 diff_opt                            = 1,
 km_opt                              = 2,
 damp_opt                            = 2,
 dampcoef                            = .003,
 zdamp                               = 5000.,
 khdif                               = 300,
 kvdif                               = 1,
 smdiv                               = 0.1,
 emdiv                               = 0.01,
 epssm                               = 0.1,
 time_step_sound                     = 6,
 h_mom_adv_order                     = 5,      5,      5,
 v_mom_adv_order                     = 3,      3,      3,
 h_sca_adv_order                     = 3,      3,      3,
 v_sca_adv_order                     = 3,      3,      3,
 moist_adv_opt                       = 2,      2,      1,
 scalar_adv_opt                      = 2,      2,      1,
 chem_adv_opt                        = 2,      2,     1,
 tke_adv_opt                         = 2,      2,      1,
 pert_coriolis                       = .true.,
 mix_full_fields                     = .true.,
 non_hydrostatic                     = .true.,
 /

 &bdy_control
 periodic_x                          = .true.,
 symmetric_xs                        = .false.,
 symmetric_xe                        = .false.,
 open_xs                             = .false.,
 open_xe                             = .false.,
 periodic_y                          = .true.,
 symmetric_ys                        = .false.,
 symmetric_ye                        = .false.,
 open_ys                             = .false.,
 open_ye                             = .false.,
 /

 &chem
 kemit                               = 19,
 chem_opt                            = 777,        2,
 bioemdt                             = 30,       30,
 photdt                              = 30,       30,
 chemdt                              = 2.,       2.,
 emiss_inpt_opt                      = 1,        1,
 emiss_opt                           = 0,        3,
 io_style_emissions = 1
 chem_in_opt                         = 0,        0,
 phot_opt                            = 1,        1,
 gas_drydep_opt                      = 0,        1,
 aer_drydep_opt                      = 0,        1,
 bio_emiss_opt                       = 1,        1,
 gas_bc_opt                          = 1,        1,
 gas_ic_opt                          = 1,        1,
 aer_bc_opt                          = 1,        1,
 aer_ic_opt                          = 1,        1,
 gaschem_onoff                       = 1,        1,
 aerchem_onoff                       = 1,        1,
 wetscav_onoff                       = 0,        0,
 cldchem_onoff                       = 0,        0,
 vertmix_onoff                       = 1,        1,
 chem_conv_tr                        = 0,        1,
 biomass_burn_opt                    = 0,        0,
 aer_ra_feedback                     = 0,        0,
 have_bcs_chem                       = .true., .false.,
 /

 &namelist_quilt
 nio_tasks_per_group = 0,
 nio_groups = 1,
 /

 &partmc
 num_particles = 500.0,
 do_coagulation = .false.
 do_emission = .false.,
 do_mosaic = .false.,
 do_deposition = .false.,
 do_gridded_output = .false.,
 do_transport = .true.,
 record_removals = .false.,
 do_optical = .false.,
 do_scm = .true.,
 random_seed = 0,
 partmc_prefix_out = "./out/trans_ideal"
 partmc_prefix_in = "./",
 partmc_specfile = "./scenario.spec",
 partmc_emissions = "./emissions/aero_emit_dists",
 partmc_chem_dt = 300.0
 /
