 &time_control
 run_days                            = 0,
 run_hours                           = 0,
 run_minutes                         = 0,
 run_seconds                         = 16000,
 start_year                          = 0001, 0001, 0001,
 start_month                         = 01,   01,   01,
 start_day                           = 01,   01,   01,
 start_hour                          = 00,   00,   00,
 start_minute                        = 00,   00,   00,
 start_second                        = 00,   00,   00,
 end_year                            = 0001, 0001, 0001,
 end_month                           = 01,   01,   01,
 end_day                             = 01,   01,   01,
 end_hour                            = 00,   00,   00,
 end_minute                          = 120,  120,  120,
 end_second                          = 00,   00,   00,
 history_interval                    = 60,   10,   10,
 frames_per_outfile                  = 1000, 1000, 1000,
 restart                             = .false.,
 restart_interval                    = 120,
 io_form_history                     = 2
 io_form_restart                     = 2
 io_form_input                       = 2
 io_form_boundary                    = 2
 io_form_auxhist2 = 2,
 auxhist2_interval_s = 100,
 auxhist2_outname = %%AUXHIST2%%,
 debug_level                         = 0
 /

 &domains
 time_step                           = %%DT%%,
 time_step_fract_num                 = %%FRACT_NUM%%,
 time_step_fract_den                 = %%FRACT_DEN%%,
 max_dom                             = 1,
 s_we                                = 1,     1,     1,
 e_we                                = %%NX%%,    43,    43,
 s_sn                                = 1,     1,     1,
 e_sn                                = %%NY%%,    43,    43,
 s_vert                              = 1,     1,     1,
 e_vert                              = 4,    41,    41,
 dx                                  = %%DX%%,  666.6666667, 222.2222222
 dy                                  = %%DY%%,  666.6666667, 222.2222222
 ztop                                = 20000, 20000, 20000,
 grid_id                             = 1,     2,     3,
 parent_id                           = 0,     1,     2,
 i_parent_start                      = 0,     15,    15,
 j_parent_start                      = 0,     15,    15,
 parent_grid_ratio                   = 1,     3,     3,
 parent_time_step_ratio              = 1,     3,     3,
 feedback                            = 1,
 smooth_option                       = 0
 /

 &physics
 mp_physics                          = 1,     1,     1,
 ra_lw_physics                       = 0,     0,     0,
 ra_sw_physics                       = 0,     0,     0,
 radt                                = 30,    30,    30,
 sf_sfclay_physics                   = 0,     0,     0,
 sf_surface_physics                  = 0,     0,     0,
 bl_pbl_physics                      = 0,     0,     0,
 bldt                                = 0,     0,     0,
 cu_physics                          = 0,     0,     0,
 cudt                                = 5,     5,     5,
 num_land_cat = 24,
 num_soil_layers                     = 5,
 /

 &fdda
 /

 &dynamics
 rk_ord                              = 3,
 diff_opt                            = 0,      2,      2,
 km_opt                              = 0,      2,      2,
 damp_opt                            = 0,
 zdamp                               = 5000.,  5000.,  5000.,
 dampcoef                            = 0.00,  0.003,  0.003
 khdif                               = 0,    500,    500,
 kvdif                               = 0,    500,    500,
 smdiv                               = 0.0,    0.1,    0.1,
 emdiv                               = 0.0,   0.01,   0.01,
 epssm                               = 0.0,    0.1,    0.1
 time_step_sound                     = 6,      6,      6,
 h_mom_adv_order                     = 5,      5,      5,
 v_mom_adv_order                     = 3,      3,      3,
 h_sca_adv_order                     = 5,      5,      5,
 v_sca_adv_order                     = 3,      3,      3,
 moist_adv_opt                       = 1,      1,      1,     
 scalar_adv_opt                      = 1,      1,      1,     
 chem_adv_opt                        = 1,      1,      1,     
 tke_adv_opt                         = 1,      1,      1,     
 non_hydrostatic                     = .true., .true., .true.,
 mix_full_fields                     = .true., .true., .true.,
 /

 &bdy_control
 periodic_x                          = .true.,.false.,.false.,
 symmetric_xs                        = .false.,.false.,.false.,
 symmetric_xe                        = .false.,.false.,.false.,
 open_xs                             = .false., .false.,.false.,
 open_xe                             = .false., .false.,.false.,
 periodic_y                          = .true.,.false.,.false.,
 symmetric_ys                        = .false.,.false.,.false.,
 symmetric_ye                        = .false.,.false.,.false.,
 open_ys                             = .false., .false.,.false.,
 open_ye                             = .false., .false.,.false.,
 nested                              = .false., .true., .true.,
 /

 &chem
 kemit                               = 19,
 chem_opt                            = 777,        2,
 bioemdt                             = 30,       30,
 photdt                              = 30,       30,
 chemdt                              = 2.,       2.,
 emiss_inpt_opt                      = 1,        1,
 emiss_opt                           = 0,        3,
 io_style_emissions = 1
 chem_in_opt                         = 0,        0,
 phot_opt                            = 1,        1,
 gas_drydep_opt                      = 0,        1,
 aer_drydep_opt                      = 0,        1,
 bio_emiss_opt                       = 1,        1,
 gas_bc_opt                          = 1,        1,
 gas_ic_opt                          = 1,        1,
 aer_bc_opt                          = 1,        1,
 aer_ic_opt                          = 1,        1,
 gaschem_onoff                       = 1,        1,
 aerchem_onoff                       = 1,        1,
 wetscav_onoff                       = 0,        0,
 cldchem_onoff                       = 0,        0,
 vertmix_onoff                       = 1,        1,
 chem_conv_tr                        = 0,        1,
 biomass_burn_opt                    = 0,        0,
 aer_ra_feedback                     = 0,        0,
 have_bcs_chem                       = .true., .false.,
 /

 &partmc
 num_particles = %%N_PART%%, 
 do_coagulation = .false.
 do_emission = .false.,
 do_mosaic = .false.,
 do_deposition = .false.,
 do_gridded_output = .true.,
 do_transport = .true.,
 record_removals = .false.,
 do_optical = .false.,
 allow_halving = .true.,
 allow_doubling = .true.
 random_seed = 0,
 partmc_prefix_out = "./out/cares"
 partmc_prefix_in = "./",
 partmc_specfile = "./scenario.spec",
 partmc_emissions = "./aero_emit_dists_new/aero_emit_dists",
 partmc_bcs = "./bcs/bcs",
 partmc_ics = "./ics/ics",
 partmc_chem_dt = 300.0,
 num_bins = 100,
 num_edges = 101
 do_uniform = .true.
 do_zero_background = .true.
 /

 &grib2
 /

 &namelist_quilt
 nio_tasks_per_group = 0,
 nio_groups = 1,
 /

 &scm
 /
 scm_lu_index = 2
 /
